* NGSPICE file created from tt_um_vga_example.ext - technology: ihp-sg13g2

* Black-box entry subcircuit for sg13g2_decap_4 abstract view
.subckt sg13g2_decap_4 VDD VSS
.ends

* Black-box entry subcircuit for sg13g2_decap_8 abstract view
.subckt sg13g2_decap_8 VDD VSS
.ends

* Black-box entry subcircuit for sg13g2_a21oi_1 abstract view
.subckt sg13g2_a21oi_1 VSS VDD A1 A2 Y B1
.ends

* Black-box entry subcircuit for sg13g2_and2_1 abstract view
.subckt sg13g2_and2_1 A B X VDD VSS
.ends

* Black-box entry subcircuit for sg13g2_inv_1 abstract view
.subckt sg13g2_inv_1 VDD Y A VSS
.ends

* Black-box entry subcircuit for sg13g2_o21ai_1 abstract view
.subckt sg13g2_o21ai_1 B1 VDD Y VSS A1 A2
.ends

* Black-box entry subcircuit for sg13g2_buf_1 abstract view
.subckt sg13g2_buf_1 A X VDD VSS
.ends

* Black-box entry subcircuit for sg13g2_dlygate4sd3_1 abstract view
.subckt sg13g2_dlygate4sd3_1 A VDD VSS X
.ends

* Black-box entry subcircuit for sg13g2_fill_1 abstract view
.subckt sg13g2_fill_1 VDD VSS
.ends

* Black-box entry subcircuit for sg13g2_fill_2 abstract view
.subckt sg13g2_fill_2 VDD VSS
.ends

* Black-box entry subcircuit for sg13g2_nand3_1 abstract view
.subckt sg13g2_nand3_1 B C A Y VDD VSS
.ends

* Black-box entry subcircuit for sg13g2_and3_1 abstract view
.subckt sg13g2_and3_1 X A B C VDD VSS
.ends

* Black-box entry subcircuit for sg13g2_a22oi_1 abstract view
.subckt sg13g2_a22oi_1 Y B1 B2 A2 A1 VDD VSS
.ends

* Black-box entry subcircuit for sg13g2_a221oi_1 abstract view
.subckt sg13g2_a221oi_1 VDD VSS B2 C1 B1 A1 Y A2
.ends

* Black-box entry subcircuit for sg13g2_dfrbpq_1 abstract view
.subckt sg13g2_dfrbpq_1 RESET_B VSS VDD D Q CLK
.ends

* Black-box entry subcircuit for sg13g2_xor2_1 abstract view
.subckt sg13g2_xor2_1 B A X VDD VSS
.ends

* Black-box entry subcircuit for sg13g2_nand2_1 abstract view
.subckt sg13g2_nand2_1 Y A B VDD VSS
.ends

* Black-box entry subcircuit for sg13g2_mux4_1 abstract view
.subckt sg13g2_mux4_1 S0 A0 A1 A2 A3 S1 X VDD VSS
.ends

* Black-box entry subcircuit for sg13g2_xnor2_1 abstract view
.subckt sg13g2_xnor2_1 Y A B VDD VSS
.ends

* Black-box entry subcircuit for sg13g2_nor2b_1 abstract view
.subckt sg13g2_nor2b_1 A B_N Y VDD VSS
.ends

* Black-box entry subcircuit for sg13g2_mux2_1 abstract view
.subckt sg13g2_mux2_1 A0 A1 S X VDD VSS
.ends

* Black-box entry subcircuit for sg13g2_nand2b_1 abstract view
.subckt sg13g2_nand2b_1 Y B A_N VDD VSS
.ends

* Black-box entry subcircuit for sg13g2_nor2_1 abstract view
.subckt sg13g2_nor2_1 A B Y VDD VSS
.ends

* Black-box entry subcircuit for sg13g2_nor3_1 abstract view
.subckt sg13g2_nor3_1 A B C Y VDD VSS
.ends

* Black-box entry subcircuit for sg13g2_nor4_1 abstract view
.subckt sg13g2_nor4_1 A B C D Y VDD VSS
.ends

* Black-box entry subcircuit for sg13g2_nand4_1 abstract view
.subckt sg13g2_nand4_1 B C A Y VDD VSS D
.ends

* Black-box entry subcircuit for sg13g2_tielo abstract view
.subckt sg13g2_tielo VDD VSS L_LO
.ends

* Black-box entry subcircuit for sg13g2_a21o_1 abstract view
.subckt sg13g2_a21o_1 A2 A1 B1 X VDD VSS
.ends

* Black-box entry subcircuit for sg13g2_or2_1 abstract view
.subckt sg13g2_or2_1 VSS VDD X B A
.ends

* Black-box entry subcircuit for sg13g2_or3_1 abstract view
.subckt sg13g2_or3_1 A B C X VDD VSS
.ends

* Black-box entry subcircuit for sg13g2_or4_1 abstract view
.subckt sg13g2_or4_1 A B C D X VDD VSS
.ends

* Black-box entry subcircuit for sg13g2_buf_8 abstract view
.subckt sg13g2_buf_8 A X VDD VSS
.ends

* Black-box entry subcircuit for sg13g2_and4_1 abstract view
.subckt sg13g2_and4_1 A B C D X VDD VSS
.ends

* Black-box entry subcircuit for sg13g2_nand3b_1 abstract view
.subckt sg13g2_nand3b_1 B C Y VDD VSS A_N
.ends

* Black-box entry subcircuit for sg13g2_buf_16 abstract view
.subckt sg13g2_buf_16 X A VDD VSS
.ends

* Black-box entry subcircuit for sg13g2_inv_2 abstract view
.subckt sg13g2_inv_2 Y A VDD VSS
.ends

* Black-box entry subcircuit for sg13g2_inv_4 abstract view
.subckt sg13g2_inv_4 A Y VDD VSS
.ends

* Black-box entry subcircuit for sg13g2_tiehi abstract view
.subckt sg13g2_tiehi VDD VSS L_HI
.ends

.subckt tt_um_vga_example VGND VPWR clk ena rst_n ui_in[0] ui_in[1] ui_in[2] ui_in[3]
+ ui_in[4] ui_in[5] ui_in[6] ui_in[7] uio_in[0] uio_in[1] uio_in[2] uio_in[3] uio_in[4]
+ uio_in[5] uio_in[6] uio_in[7] uio_oe[0] uio_oe[1] uio_oe[2] uio_oe[3] uio_oe[4]
+ uio_oe[5] uio_oe[6] uio_oe[7] uio_out[0] uio_out[1] uio_out[2] uio_out[3] uio_out[4]
+ uio_out[5] uio_out[6] uio_out[7] uo_out[0] uo_out[1] uo_out[2] uo_out[3] uo_out[4]
+ uo_out[5] uo_out[6] uo_out[7]
XFILLER_67_553 VPWR VGND sg13g2_decap_4
XFILLER_67_575 VPWR VGND sg13g2_decap_8
XFILLER_27_428 VPWR VGND sg13g2_decap_4
XFILLER_82_545 VPWR VGND sg13g2_decap_4
XFILLER_42_409 VPWR VGND sg13g2_decap_8
XFILLER_22_122 VPWR VGND sg13g2_decap_8
XFILLER_35_494 VPWR VGND sg13g2_decap_8
Xmy_decoder_paint_inst__475_ VGND VPWR my_decoder_paint_inst__473_/Y my_decoder_paint_inst__474_/Y
+ my_decoder_paint_inst__475_/Y my_decoder_paint_inst__459_/A sg13g2_a21oi_1
Xmy_decoder_age_inst__0550_ my_decoder/net218 my_decoder_age_inst__0908_/Q my_decoder_age_inst__0550_/X
+ VPWR VGND sg13g2_and2_1
Xmy_decoder_age_inst__0481_ VPWR my_decoder_age_inst__0481_/Y my_decoder/w_age_grid\[61\]
+ VGND sg13g2_inv_1
Xmy_game_engine__0709_ my_game_engine/_0424_ VPWR my_game_engine/_0235_ VGND my_game_engine/_0336_
+ my_game_engine/net58 sg13g2_o21ai_1
Xmy_game_engine_nc_fanout95 my_game_engine_nc__387_/Y my_game_engine_nc__449_/A VPWR
+ VGND sg13g2_buf_1
Xu_input_top_hold871 u_input_top_hold871/A VPWR VGND u_input_top/net871 sg13g2_dlygate4sd3_1
XFILLER_7_7 VPWR VGND sg13g2_decap_8
Xmy_decoder_fanout404 my_decoder/net405 my_decoder/net404 VPWR VGND sg13g2_buf_1
XFILLER_58_520 VPWR VGND sg13g2_fill_1
XFILLER_58_575 VPWR VGND sg13g2_fill_2
XFILLER_45_247 VPWR VGND sg13g2_decap_8
Xmy_game_engine_nc__622_ my_game_engine__1076_/Q my_game_engine_nc__677_/C my_game_engine_nc__622_/A
+ my_game_engine_nc__622_/Y VPWR VGND sg13g2_nand3_1
XFILLER_26_52 VPWR VGND sg13g2_decap_8
Xmy_game_engine_nc__553_ my_game_engine_nc__553_/X my_game_engine_nc__595_/C my_game_engine_nc__604_/C
+ my_game_engine_nc__553_/C VPWR VGND sg13g2_and3_1
XFILLER_26_96 VPWR VGND sg13g2_decap_8
Xmy_decoder_age_inst__0817_ my_decoder_age_inst__0997_/D my_decoder_age_inst__0815_/Y
+ my_decoder_age_inst__0498_/Y my_decoder_age_inst__0812_/Y my_decoder/net209 VPWR
+ VGND sg13g2_a22oi_1
XFILLER_13_144 VPWR VGND sg13g2_decap_8
XFILLER_14_667 VPWR VGND sg13g2_decap_4
Xmy_game_engine_nc__484_ VPWR VGND my_game_engine_nc__483_/Y my_game_engine/net347
+ my_game_engine_nc__482_/Y my_game_engine_nc__479_/Y my_game_engine_nc__484_/Y my_game_engine_nc__480_/Y
+ sg13g2_a221oi_1
Xmy_decoder_age_inst__0748_ my_decoder_age_inst__0749_/A my_decoder/w_age_grid\[48\]
+ my_decoder_age_inst__0748_/X VPWR VGND sg13g2_and2_1
X_294_ net276 VGND VPWR _028_ r_current_grid\[27\] clknet_leaf_11_clk sg13g2_dfrbpq_1
XFILLER_42_95 VPWR VGND sg13g2_fill_2
Xmy_decoder_age_inst__0679_ my_decoder_age_inst__0951_/D my_decoder_age_inst__0677_/Y
+ my_decoder_age_inst__0475_/Y my_decoder_age_inst__0674_/Y my_decoder_age_inst__0703_/A1
+ VPWR VGND sg13g2_a22oi_1
XFILLER_5_398 VPWR VGND sg13g2_fill_1
XFILLER_1_571 VPWR VGND sg13g2_decap_8
XFILLER_1_582 VPWR VGND sg13g2_fill_2
XFILLER_49_520 VPWR VGND sg13g2_decap_8
XFILLER_49_564 VPWR VGND sg13g2_decap_8
XFILLER_36_214 VPWR VGND sg13g2_decap_8
Xmy_game_engine__0991_ VPWR my_game_engine/_0097_ my_game_engine/net429 VGND sg13g2_inv_1
XFILLER_51_206 VPWR VGND sg13g2_fill_1
XFILLER_17_494 VPWR VGND sg13g2_decap_4
Xmy_decoder__296_ net283 VGND VPWR my_decoder/_055_ my_decoder__296_/Q my_decoder/net375
+ sg13g2_dfrbpq_1
XFILLER_20_626 VPWR VGND sg13g2_decap_8
Xmy_decoder_paint_inst__260_ VPWR my_decoder_paint_inst__328_/A my_decoder/px\[8\]
+ VGND sg13g2_inv_1
XFILLER_66_0 VPWR VGND sg13g2_decap_8
Xmy_game_engine_fanout344 my_game_engine/net345 my_game_engine/net344 VPWR VGND sg13g2_buf_1
Xmy_game_engine_fanout355 my_game_engine__1166_/Q my_game_engine/net355 VPWR VGND
+ sg13g2_buf_1
Xu_input_top_u_matrix_mem__560_ u_input_top_u_matrix_mem_fanout269/X VGND VPWR u_input_top_u_matrix_mem__560_/D
+ u_input_top_u_matrix_mem__560_/Q clknet_leaf_7_clk sg13g2_dfrbpq_1
Xfanout127 net129 net127 VPWR VGND sg13g2_buf_1
Xu_input_top_u_matrix_mem__491_ net267 VGND VPWR u_input_top_u_matrix_mem__491_/D
+ w_grid_from_input\[11\] clknet_leaf_5_clk sg13g2_dfrbpq_1
XFILLER_27_203 VPWR VGND sg13g2_decap_8
Xmy_decoder_timing_inst__100_ my_decoder/px\[1\] my_decoder/px\[0\] my_decoder_timing_inst__157_/D
+ VPWR VGND sg13g2_xor2_1
XFILLER_67_383 VPWR VGND sg13g2_decap_8
XFILLER_55_534 VPWR VGND sg13g2_fill_1
XFILLER_42_206 VPWR VGND sg13g2_decap_8
XFILLER_42_239 VPWR VGND sg13g2_fill_1
Xmy_decoder_paint_inst__527_ my_decoder_paint_inst__468_/Y VPWR my_decoder_paint_inst__527_/Y
+ VGND my_decoder_paint_inst__465_/Y my_decoder_paint_inst__524_/X sg13g2_o21ai_1
Xmy_decoder_age_inst__0602_ my_decoder_age_inst__0602_/Y r_current_grid\[48\] my_decoder__311_/Q
+ VPWR VGND sg13g2_nand2_1
XFILLER_11_637 VPWR VGND sg13g2_decap_8
Xmy_decoder_paint_inst__458_ my_decoder_paint_inst__492_/S0 my_decoder__292_/Q my_decoder__294_/Q
+ my_decoder__141_/Y my_decoder__293_/Q my_decoder_paint_inst__492_/S1 my_decoder_paint_inst__459_/B
+ VPWR VGND sg13g2_mux4_1
Xmy_decoder_age_inst__0533_ my_decoder_age_inst__0533_/Y my_decoder_age_inst__0533_/A
+ my_decoder_age_inst__0902_/Q VPWR VGND sg13g2_nand2_1
XFILLER_7_608 VPWR VGND sg13g2_decap_4
Xmy_decoder_paint_inst__389_ my_decoder_paint_inst__392_/B my_decoder_paint_inst__459_/A
+ my_decoder_paint_inst__389_/B VPWR VGND sg13g2_nand2_1
Xmy_decoder_age_inst__0464_ VPWR my_decoder_age_inst__0464_/Y my_decoder/w_age_grid\[95\]
+ VGND sg13g2_inv_1
Xmy_decoder_fanout212 my_decoder/net218 my_decoder/net212 VPWR VGND sg13g2_buf_1
XFILLER_78_604 VPWR VGND sg13g2_fill_2
Xmy_decoder_fanout234 my_decoder__334_/Q my_decoder/net234 VPWR VGND sg13g2_buf_1
Xmy_decoder_age_inst__1016_ my_decoder_age_inst_fanout294/X VGND VPWR my_decoder_age_inst__1016_/D
+ my_decoder/w_age_grid\[6\] my_decoder/net383 sg13g2_dfrbpq_1
XFILLER_58_394 VPWR VGND sg13g2_fill_2
XFILLER_37_84 VPWR VGND sg13g2_fill_1
XFILLER_33_206 VPWR VGND sg13g2_fill_2
XFILLER_46_589 VPWR VGND sg13g2_decap_8
Xmy_game_engine_nc__605_ my_game_engine_nc__605_/X my_game_engine/net357 my_game_engine_nc__606_/B
+ my_game_engine__1098_/Q VPWR VGND sg13g2_and3_1
XFILLER_33_228 VPWR VGND sg13g2_decap_8
XFILLER_14_464 VPWR VGND sg13g2_decap_8
Xmy_game_engine_nc__536_ my_game_engine_nc__536_/Y my_game_engine/net347 my_game_engine_nc__537_/B
+ VPWR VGND sg13g2_xnor2_1
Xmy_decoder__150_ VPWR my_decoder/_092_ my_decoder__331_/Q VGND sg13g2_inv_1
Xmy_game_engine_nc__467_ my_game_engine_nc__467_/A my_game_engine_nc__476_/B my_game_engine_nc__519_/B
+ VPWR VGND sg13g2_nor2b_1
XFILLER_53_94 VPWR VGND sg13g2_decap_4
XFILLER_41_294 VPWR VGND sg13g2_decap_4
XFILLER_10_670 VPWR VGND sg13g2_fill_2
Xmy_game_engine_nc__398_ my_game_engine_nc__647_/A1 my_game_engine_nc__392_/X my_game_engine_nc__393_/X
+ my_game_engine_nc__395_/Y my_game_engine_nc__397_/Y my_game_engine_nc__449_/A my_game_engine_nc__398_/X
+ VPWR VGND sg13g2_mux4_1
X_277_ net281 VGND VPWR _011_ r_current_grid\[10\] clknet_leaf_4_clk sg13g2_dfrbpq_1
XFILLER_6_663 VPWR VGND sg13g2_fill_1
XFILLER_6_652 VPWR VGND sg13g2_decap_8
Xmy_game_engine_hold805 my_game_engine__1043_/Q VPWR VGND my_game_engine/net805 sg13g2_dlygate4sd3_1
XFILLER_69_637 VPWR VGND sg13g2_decap_8
Xmy_game_engine_hold849 my_game_engine__1042_/Q VPWR VGND my_game_engine/net849 sg13g2_dlygate4sd3_1
XFILLER_84_607 VPWR VGND sg13g2_decap_4
XFILLER_64_353 VPWR VGND sg13g2_fill_2
XFILLER_64_342 VPWR VGND sg13g2_fill_2
XFILLER_24_206 VPWR VGND sg13g2_fill_2
Xmy_game_engine__0974_ VPWR my_game_engine/_0080_ net428 VGND sg13g2_inv_1
Xmy_decoder_paint_inst__312_ my_decoder_paint_inst__312_/A my_decoder_paint_inst__311_/Y
+ my_decoder_paint_inst__313_/C VPWR VGND sg13g2_nor2b_1
Xmy_decoder__279_ my_decoder/net295 VGND VPWR my_decoder/_038_ my_decoder__279_/Q
+ my_decoder/net387 sg13g2_dfrbpq_1
Xmy_game_engine_fanout152 my_game_engine/net153 my_game_engine/net152 VPWR VGND sg13g2_buf_1
Xmy_game_engine_fanout163 my_game_engine/_0279_ my_game_engine/net163 VPWR VGND sg13g2_buf_1
XFILLER_59_136 VPWR VGND sg13g2_decap_8
Xu_input_top_u_matrix_mem__543_ net273 VGND VPWR u_input_top_u_matrix_mem__543_/D
+ w_grid_from_input\[63\] clknet_leaf_10_clk sg13g2_dfrbpq_1
XFILLER_28_512 VPWR VGND sg13g2_decap_8
Xu_input_top_u_matrix_mem__474_ VGND VPWR u_input_top_u_matrix_mem__406_/Y u_input_top_u_matrix_mem__478_/A2
+ u_input_top_u_matrix_mem__475_/B u_input_top_u_matrix_mem__474_/B1 sg13g2_a21oi_1
XFILLER_55_375 VPWR VGND sg13g2_decap_8
X_200_ net669 net601 net244 _100_ VPWR VGND sg13g2_mux2_1
XFILLER_11_434 VPWR VGND sg13g2_fill_1
XFILLER_23_294 VPWR VGND sg13g2_fill_2
Xmy_decoder_age_inst__0516_ VPWR VGND my_decoder_age_inst__0448_/Y my_decoder_age_inst__0513_/Y
+ my_decoder_age_inst__0514_/X my_decoder_age_inst__0521_/A my_decoder_age_inst__0896_/D
+ my_decoder_age_inst__0512_/Y sg13g2_a221oi_1
XFILLER_3_611 VPWR VGND sg13g2_fill_1
XFILLER_3_644 VPWR VGND sg13g2_decap_8
XFILLER_78_489 VPWR VGND sg13g2_decap_8
XFILLER_59_670 VPWR VGND sg13g2_fill_2
XFILLER_19_545 VPWR VGND sg13g2_fill_1
XFILLER_0_57 VPWR VGND sg13g2_decap_8
XFILLER_74_662 VPWR VGND sg13g2_decap_8
Xmy_decoder__202_ my_decoder__292_/Q r_current_grid\[29\] my_decoder/net115 my_decoder/_051_
+ VPWR VGND sg13g2_mux2_1
Xmy_game_engine_nc__519_ my_game_engine_nc__519_/Y my_game_engine_nc__519_/B my_game_engine__1062_/Q
+ VPWR VGND sg13g2_nand2b_1
Xmy_decoder__133_ VPWR my_decoder__133_/Y my_decoder/_019_ VGND sg13g2_inv_1
Xu_input_top_fanout332 u_input_top/net871 u_input_top/net332 VPWR VGND sg13g2_buf_1
Xmy_game_engine__0690_ my_game_engine/net154 my_game_engine/net150 my_game_engine/net164
+ my_game_engine/_0412_ VPWR VGND sg13g2_nand3_1
XFILLER_9_77 VPWR VGND sg13g2_decap_8
X_329_ net305 VGND VPWR _063_ r_current_grid\[62\] clknet_leaf_14_clk sg13g2_dfrbpq_1
XFILLER_29_0 VPWR VGND sg13g2_decap_8
Xmy_game_engine_hold613 my_game_engine__1172_/Q VPWR VGND my_game_engine/net613 sg13g2_dlygate4sd3_1
XFILLER_84_426 VPWR VGND sg13g2_decap_8
XFILLER_37_320 VPWR VGND sg13g2_decap_8
XFILLER_37_342 VPWR VGND sg13g2_fill_1
XFILLER_56_139 VPWR VGND sg13g2_decap_8
XFILLER_37_364 VPWR VGND sg13g2_decap_8
XFILLER_80_610 VPWR VGND sg13g2_fill_2
XFILLER_80_621 VPWR VGND sg13g2_decap_8
XFILLER_40_518 VPWR VGND sg13g2_decap_8
Xmy_game_engine__0957_ VPWR my_game_engine/_0063_ my_game_engine/net431 VGND sg13g2_inv_1
Xmy_game_engine__0888_ my_game_engine/_0503_ my_game_engine/_0507_ my_game_engine/net347
+ my_game_engine/_0508_ VPWR VGND sg13g2_nand3_1
XFILLER_4_408 VPWR VGND sg13g2_fill_2
XFILLER_0_625 VPWR VGND sg13g2_decap_8
Xu_input_top_u_matrix_mem__526_ net273 VGND VPWR u_input_top_u_matrix_mem__526_/D
+ w_grid_from_input\[46\] clknet_leaf_7_clk sg13g2_dfrbpq_1
XFILLER_75_448 VPWR VGND sg13g2_decap_8
Xu_input_top_u_matrix_mem__457_ u_input_top_u_matrix_mem__459_/A u_input_top_u_matrix_mem__457_/B
+ u_input_top_u_matrix_mem__597_/D VPWR VGND sg13g2_nor2_1
XFILLER_56_662 VPWR VGND sg13g2_decap_8
XFILLER_16_526 VPWR VGND sg13g2_decap_8
Xu_input_top_u_matrix_mem__388_ u_input_top_u_matrix_mem__388_/A u_input_top_u_matrix_mem__388_/B
+ u_input_top_u_matrix_mem__388_/C u_input_top_u_matrix_mem__388_/Y VPWR VGND sg13g2_nor3_1
Xmy_decoder_age_inst__0996_ net279 VGND VPWR my_decoder_age_inst__0996_/D my_decoder/w_age_grid\[26\]
+ my_decoder/net396 sg13g2_dfrbpq_1
XFILLER_43_356 VPWR VGND sg13g2_decap_8
XFILLER_71_665 VPWR VGND sg13g2_decap_8
XFILLER_39_618 VPWR VGND sg13g2_decap_8
XFILLER_78_253 VPWR VGND sg13g2_decap_8
XFILLER_39_629 VPWR VGND sg13g2_fill_2
XFILLER_19_331 VPWR VGND sg13g2_decap_8
XFILLER_62_654 VPWR VGND sg13g2_decap_8
XFILLER_22_529 VPWR VGND sg13g2_decap_8
XFILLER_34_378 VPWR VGND sg13g2_fill_2
Xmy_game_engine__0811_ my_game_engine/net766 r_current_grid\[19\] my_game_engine/net70
+ my_game_engine/_0162_ VPWR VGND sg13g2_mux2_1
Xmy_game_engine__0742_ my_game_engine/_0441_ VPWR my_game_engine/_0219_ VGND my_game_engine/_0386_
+ my_game_engine/net58 sg13g2_o21ai_1
XFILLER_30_584 VPWR VGND sg13g2_decap_8
Xmy_game_engine__0673_ my_game_engine/_0398_ VPWR my_game_engine/_0246_ VGND my_game_engine/net61
+ my_game_engine/_0399_ sg13g2_o21ai_1
Xhold714 r_current_grid\[39\] VPWR VGND net714 sg13g2_dlygate4sd3_1
Xmy_game_engine__1156_ my_game_engine/_0124_ VGND VPWR my_game_engine/_0263_ w_next_grid\[56\]
+ clknet_leaf_11_clk sg13g2_dfrbpq_1
Xmy_game_engine_re__4_ my_game_engine_re__4_/A my_game_engine_re__4_/B my_game_engine_re__4_/C
+ my_game_engine_re__4_/D my_game_engine_re__4_/Y VPWR VGND sg13g2_nor4_1
XFILLER_84_212 VPWR VGND sg13g2_decap_8
XFILLER_57_404 VPWR VGND sg13g2_decap_8
Xmy_game_engine__1087_ my_game_engine/_0055_ VGND VPWR my_game_engine/net721 my_game_engine__1087_/Q
+ clknet_leaf_16_clk sg13g2_dfrbpq_1
Xu_input_top_u_matrix_mem__311_ u_input_top__0_/Q u_input_top_u_matrix_mem__471_/A
+ u_input_top_u_matrix_mem__415_/A VPWR VGND sg13g2_nor2_1
XFILLER_25_334 VPWR VGND sg13g2_decap_8
Xu_input_top_u_matrix_mem__242_ VPWR u_input_top_u_matrix_mem__242_/Y u_input_top/net328
+ VGND sg13g2_inv_1
Xmy_decoder_age_inst__0850_ my_decoder_age_inst__0869_/A my_decoder/w_age_grid\[14\]
+ my_decoder_age_inst__0850_/X VPWR VGND sg13g2_and2_1
XFILLER_25_345 VPWR VGND sg13g2_fill_1
Xmy_decoder_age_inst__0781_ my_decoder_age_inst__0985_/D my_decoder_age_inst__0779_/Y
+ my_decoder_age_inst__0492_/Y my_decoder_age_inst__0776_/Y my_decoder_age_inst__0785_/A
+ VPWR VGND sg13g2_a22oi_1
XFILLER_80_451 VPWR VGND sg13g2_decap_8
XFILLER_53_654 VPWR VGND sg13g2_decap_8
XFILLER_25_378 VPWR VGND sg13g2_decap_4
XFILLER_40_326 VPWR VGND sg13g2_decap_8
XFILLER_21_562 VPWR VGND sg13g2_fill_1
XFILLER_21_584 VPWR VGND sg13g2_decap_8
XFILLER_21_595 VPWR VGND sg13g2_fill_2
XFILLER_0_411 VPWR VGND sg13g2_decap_8
XFILLER_29_52 VPWR VGND sg13g2_decap_8
XFILLER_0_499 VPWR VGND sg13g2_decap_8
Xu_input_top_u_matrix_mem__509_ u_input_top/net270 VGND VPWR u_input_top_u_matrix_mem__509_/D
+ w_grid_from_input\[29\] clknet_leaf_9_clk sg13g2_dfrbpq_1
XFILLER_63_429 VPWR VGND sg13g2_decap_8
XFILLER_56_470 VPWR VGND sg13g2_decap_8
XFILLER_16_334 VPWR VGND sg13g2_fill_1
XFILLER_45_51 VPWR VGND sg13g2_decap_8
Xmy_decoder_age_inst__0979_ my_decoder/net298 VGND VPWR my_decoder_age_inst__0979_/D
+ my_decoder/w_age_grid\[45\] my_decoder/net387 sg13g2_dfrbpq_1
XFILLER_71_451 VPWR VGND sg13g2_fill_2
XFILLER_12_540 VPWR VGND sg13g2_decap_8
XFILLER_12_573 VPWR VGND sg13g2_decap_8
XFILLER_6_67 VPWR VGND sg13g2_fill_1
Xmy_game_engine__1010_ VPWR my_game_engine/_0116_ my_game_engine/net418 VGND sg13g2_inv_1
XFILLER_66_212 VPWR VGND sg13g2_fill_1
XFILLER_54_418 VPWR VGND sg13g2_fill_2
XFILLER_54_407 VPWR VGND sg13g2_fill_1
XFILLER_34_120 VPWR VGND sg13g2_decap_8
XFILLER_35_665 VPWR VGND sg13g2_decap_8
XFILLER_22_315 VPWR VGND sg13g2_fill_1
Xmy_decoder_paint_inst__491_ VPWR VGND my_decoder_paint_inst__490_/Y my_decoder_paint_inst__514_/S
+ my_decoder_paint_inst__489_/Y my_decoder_paint_inst__454_/A my_decoder_paint_inst__491_/Y
+ my_decoder_paint_inst__485_/X sg13g2_a221oi_1
XFILLER_62_484 VPWR VGND sg13g2_fill_2
XFILLER_62_473 VPWR VGND sg13g2_decap_8
XFILLER_22_326 VPWR VGND sg13g2_fill_2
Xmy_game_engine__0725_ net562 VPWR my_game_engine/_0433_ VGND my_game_engine/_0363_
+ my_game_engine/net144 sg13g2_o21ai_1
Xmy_game_engine__0656_ my_game_engine/net350 my_game_engine/_0337_ my_game_engine/net167
+ my_game_engine/_0387_ VPWR VGND sg13g2_nand3_1
Xmy_game_engine__0587_ net559 VPWR my_game_engine/_0335_ VGND my_game_engine/net66
+ my_game_engine/_0334_ sg13g2_o21ai_1
Xu_input_top_u_encoder__08_ u_input_top/net329 net6 net10 u_input_top_u_encoder__14_/D
+ VPWR VGND sg13g2_mux2_1
Xhold588 w_next_grid\[59\] VPWR VGND net588 sg13g2_dlygate4sd3_1
Xhold577 w_next_grid\[45\] VPWR VGND net577 sg13g2_dlygate4sd3_1
Xhold566 w_next_grid\[18\] VPWR VGND net566 sg13g2_dlygate4sd3_1
Xhold599 w_next_grid\[23\] VPWR VGND net599 sg13g2_dlygate4sd3_1
Xmy_game_engine__1139_ my_game_engine/_0107_ VGND VPWR my_game_engine/_0246_ w_next_grid\[39\]
+ clknet_leaf_23_clk sg13g2_dfrbpq_1
XFILLER_38_481 VPWR VGND sg13g2_decap_8
Xmy_decoder_age_inst__0902_ my_decoder/net307 VGND VPWR my_decoder_age_inst__0902_/D
+ my_decoder_age_inst__0902_/Q my_decoder/net398 sg13g2_dfrbpq_1
XFILLER_26_654 VPWR VGND sg13g2_decap_8
Xmy_decoder_age_inst__0833_ my_decoder_age_inst__0833_/Y my_decoder_age_inst__0833_/A
+ my_decoder/w_age_grid\[20\] VPWR VGND sg13g2_nand2_1
XFILLER_53_440 VPWR VGND sg13g2_decap_8
XFILLER_15_21 VPWR VGND sg13g2_fill_1
XFILLER_25_186 VPWR VGND sg13g2_decap_8
XFILLER_25_197 VPWR VGND sg13g2_fill_1
XFILLER_41_657 VPWR VGND sg13g2_decap_8
Xmy_decoder_age_inst__0764_ my_decoder_age_inst__0764_/Y r_current_grid\[21\] my_decoder__143_/Y
+ VPWR VGND sg13g2_nand2_1
XFILLER_80_281 VPWR VGND sg13g2_decap_8
XFILLER_53_495 VPWR VGND sg13g2_decap_8
XFILLER_15_98 VPWR VGND sg13g2_decap_8
Xmy_decoder_age_inst__0695_ my_decoder_age_inst__0695_/Y my_decoder_age_inst__0701_/A
+ my_decoder/w_age_grid\[66\] VPWR VGND sg13g2_nand2_1
XFILLER_21_392 VPWR VGND sg13g2_fill_1
XFILLER_0_274 VPWR VGND sg13g2_decap_8
XFILLER_48_267 VPWR VGND sg13g2_decap_8
XFILLER_17_621 VPWR VGND sg13g2_decap_8
XFILLER_36_429 VPWR VGND sg13g2_fill_1
XFILLER_76_598 VPWR VGND sg13g2_decap_8
XFILLER_63_237 VPWR VGND sg13g2_decap_8
XFILLER_63_204 VPWR VGND sg13g2_fill_2
XFILLER_17_654 VPWR VGND sg13g2_decap_8
XFILLER_16_153 VPWR VGND sg13g2_decap_4
Xmy_game_engine_nc__698_ my_game_engine_nc__698_/A my_game_engine_nc__699_/S my_game_engine_nc__698_/Y
+ VPWR VGND sg13g2_nor2_1
XFILLER_8_385 VPWR VGND sg13g2_fill_1
XFILLER_67_532 VPWR VGND sg13g2_decap_8
XFILLER_67_521 VPWR VGND sg13g2_decap_8
XFILLER_11_0 VPWR VGND sg13g2_decap_8
XFILLER_54_204 VPWR VGND sg13g2_decap_4
Xmy_decoder_paint_inst__474_ VGND VPWR my_decoder/w_age_grid\[16\] my_decoder_paint_inst__494_/A2
+ my_decoder_paint_inst__474_/Y my_decoder_paint_inst__505_/S0 sg13g2_a21oi_1
Xmy_decoder_age_inst__0480_ VPWR my_decoder_age_inst__0480_/Y my_decoder/w_age_grid\[63\]
+ VGND sg13g2_inv_1
Xmy_game_engine__0708_ net615 VPWR my_game_engine/_0424_ VGND my_game_engine/_0334_
+ my_game_engine/net57 sg13g2_o21ai_1
Xmy_game_engine_nc_fanout52 my_game_engine_nc__381_/Y my_game_engine_nc__677_/B VPWR
+ VGND sg13g2_buf_1
Xmy_game_engine__0639_ my_game_engine/net341 my_game_engine/net334 my_game_engine/net335
+ my_game_engine/_0375_ VPWR VGND my_game_engine/_0308_ sg13g2_nand4_1
Xmy_game_engine_nc_fanout96 my_game_engine_nc__384_/Y my_game_engine_nc__647_/A1 VPWR
+ VGND sg13g2_buf_1
Xu_input_top_hold872 u_input_top_hold872/A VPWR VGND u_input_top/net872 sg13g2_dlygate4sd3_1
Xmy_decoder_fanout405 my_decoder/net412 my_decoder/net405 VPWR VGND sg13g2_buf_1
XFILLER_58_554 VPWR VGND sg13g2_decap_8
Xmy_game_engine_nc__621_ VGND VPWR my_game_engine_nc__430_/Y my_game_engine_nc__646_/B1
+ my_game_engine_nc__621_/Y my_game_engine_nc__647_/A1 sg13g2_a21oi_1
Xmy_game_engine_nc__552_ my_game_engine_nc__476_/A my_game_engine__1071_/Q my_game_engine__1068_/Q
+ my_game_engine__1069_/Q my_game_engine__1070_/Q my_game_engine_nc__476_/B my_game_engine_nc__553_/C
+ VPWR VGND sg13g2_mux4_1
XFILLER_14_646 VPWR VGND sg13g2_decap_8
Xmy_decoder_age_inst__0816_ VPWR VGND my_decoder_age_inst__0498_/Y my_decoder_age_inst__0813_/Y
+ my_decoder_age_inst__0814_/X my_decoder/net209 my_decoder_age_inst__0996_/D my_decoder_age_inst__0812_/Y
+ sg13g2_a221oi_1
XFILLER_81_590 VPWR VGND sg13g2_fill_2
XFILLER_53_270 VPWR VGND sg13g2_decap_4
Xmy_game_engine_nc__483_ VPWR VGND my_game_engine_nc__365_/Y my_game_engine_nc__481_/Y
+ my_game_engine_nc__660_/B1 my_game_engine_nc__366_/Y my_game_engine_nc__483_/Y my_game_engine_nc__387_/B
+ sg13g2_a221oi_1
Xmy_decoder_age_inst__0747_ my_decoder_age_inst__0749_/A my_decoder/w_age_grid\[48\]
+ my_decoder_age_inst__0747_/Y VPWR VGND sg13g2_nor2_1
XFILLER_41_487 VPWR VGND sg13g2_decap_8
X_293_ net304 VGND VPWR _027_ r_current_grid\[26\] clknet_leaf_15_clk sg13g2_dfrbpq_1
Xmy_decoder_age_inst__0678_ VPWR VGND my_decoder_age_inst__0475_/Y my_decoder_age_inst__0675_/Y
+ my_decoder_age_inst__0676_/X my_decoder_age_inst__0703_/A1 my_decoder_age_inst__0950_/D
+ my_decoder_age_inst__0674_/Y sg13g2_a221oi_1
XFILLER_5_333 VPWR VGND sg13g2_decap_8
XFILLER_47_9 VPWR VGND sg13g2_fill_1
XFILLER_3_35 VPWR VGND sg13g2_decap_8
XFILLER_68_318 VPWR VGND sg13g2_fill_2
XFILLER_76_373 VPWR VGND sg13g2_fill_1
XFILLER_64_513 VPWR VGND sg13g2_decap_8
XFILLER_36_237 VPWR VGND sg13g2_decap_8
XFILLER_64_557 VPWR VGND sg13g2_fill_2
Xmy_game_engine__0990_ VPWR my_game_engine/_0096_ my_game_engine/net429 VGND sg13g2_inv_1
Xmy_decoder__295_ net287 VGND VPWR my_decoder/_054_ my_decoder__295_/Q my_decoder/net376
+ sg13g2_dfrbpq_1
XFILLER_59_0 VPWR VGND sg13g2_decap_8
Xmy_game_engine_fanout334 my_game_engine/net613 my_game_engine/net334 VPWR VGND sg13g2_buf_1
Xmy_game_engine_fanout345 my_game_engine/net346 my_game_engine/net345 VPWR VGND sg13g2_buf_1
Xmy_game_engine_fanout356 my_game_engine/net358 my_game_engine/net356 VPWR VGND sg13g2_buf_1
Xfanout128 net129 net128 VPWR VGND sg13g2_buf_1
Xu_input_top_u_matrix_mem__490_ u_input_top/net263 VGND VPWR u_input_top_u_matrix_mem__490_/D
+ w_grid_from_input\[10\] clknet_leaf_6_clk sg13g2_dfrbpq_1
XFILLER_67_362 VPWR VGND sg13g2_decap_8
XFILLER_70_527 VPWR VGND sg13g2_fill_1
XFILLER_70_516 VPWR VGND sg13g2_decap_4
XFILLER_55_579 VPWR VGND sg13g2_decap_8
Xmy_decoder_paint_inst__526_ my_decoder_paint_inst__526_/A my_decoder_paint_inst__526_/B
+ my_decoder_paint_inst__526_/C net14 VPWR VGND sg13g2_nor3_1
Xmy_decoder_age_inst__0601_ my_decoder_age_inst__0925_/D my_decoder_age_inst__0599_/Y
+ my_decoder_age_inst__0462_/Y my_decoder_age_inst__0596_/Y my_decoder_age_inst__0599_/A
+ VPWR VGND sg13g2_a22oi_1
XFILLER_23_498 VPWR VGND sg13g2_decap_8
Xtt_um_vga_example VPWR VGND uio_oe[0] sg13g2_tielo
Xmy_decoder_paint_inst__457_ my_decoder_paint_inst__457_/B my_decoder_paint_inst__457_/C
+ my_decoder_paint_inst__503_/S my_decoder_paint_inst__463_/B VPWR VGND sg13g2_nand3_1
Xmy_decoder_age_inst__0532_ my_decoder_age_inst__0533_/A my_decoder_age_inst__0902_/Q
+ my_decoder_age_inst__0532_/X VPWR VGND sg13g2_and2_1
XFILLER_50_295 VPWR VGND sg13g2_fill_1
Xmy_decoder_paint_inst__388_ my_decoder_paint_inst__492_/S0 my_decoder/w_age_grid\[27\]
+ my_decoder/w_age_grid\[31\] my_decoder/w_age_grid\[25\] my_decoder/w_age_grid\[29\]
+ my_decoder_paint_inst__492_/S1 my_decoder_paint_inst__389_/B VPWR VGND sg13g2_mux4_1
Xmy_decoder_age_inst__0463_ VPWR my_decoder_age_inst__0463_/Y my_decoder/w_age_grid\[97\]
+ VGND sg13g2_inv_1
Xmy_decoder_age_inst__1015_ my_decoder_age_inst_fanout291/X VGND VPWR my_decoder_age_inst__1015_/D
+ my_decoder/w_age_grid\[9\] my_decoder_age_inst__1021_/CLK sg13g2_dfrbpq_1
XFILLER_18_237 VPWR VGND sg13g2_decap_8
Xmy_game_engine_nc__604_ my_game_engine_nc__604_/X my_game_engine_nc__604_/A my_game_engine_nc__632_/A
+ my_game_engine_nc__604_/C VPWR VGND sg13g2_and3_1
XFILLER_14_410 VPWR VGND sg13g2_decap_4
Xmy_decoder_timing_inst__159_ my_decoder_timing_inst_fanout315/X VGND VPWR my_decoder_timing_inst__159_/D
+ my_decoder/px\[3\] my_decoder/net404 sg13g2_dfrbpq_1
XFILLER_14_443 VPWR VGND sg13g2_decap_8
XFILLER_41_251 VPWR VGND sg13g2_decap_8
Xmy_game_engine_nc__535_ my_game_engine_nc__595_/C my_game_engine_nc__379_/A my_game_engine_nc__534_/Y
+ my_game_engine_nc__649_/A VPWR VGND sg13g2_a21o_1
XFILLER_14_498 VPWR VGND sg13g2_decap_8
Xmy_game_engine_nc__466_ my_game_engine__1072_/Q my_game_engine_nc__656_/B my_game_engine_nc__474_/A
+ VPWR VGND sg13g2_nor2_1
X_276_ net281 VGND VPWR _010_ r_current_grid\[9\] clknet_leaf_13_clk sg13g2_dfrbpq_1
Xmy_game_engine_nc__397_ VGND VPWR my_game_engine_nc__467_/A my_game_engine_nc__356_/Y
+ my_game_engine_nc__397_/Y my_game_engine_nc__396_/Y sg13g2_a21oi_1
XFILLER_6_631 VPWR VGND sg13g2_decap_8
XFILLER_5_141 VPWR VGND sg13g2_fill_2
XFILLER_52_7 VPWR VGND sg13g2_fill_2
XFILLER_69_616 VPWR VGND sg13g2_decap_8
Xmy_game_engine_hold806 my_game_engine/_0150_ VPWR VGND my_game_engine/net806 sg13g2_dlygate4sd3_1
Xmy_game_engine_hold817 my_game_engine__1097_/Q VPWR VGND my_game_engine/net817 sg13g2_dlygate4sd3_1
Xmy_game_engine_hold839 my_game_engine__1066_/Q VPWR VGND my_game_engine/net839 sg13g2_dlygate4sd3_1
XFILLER_68_148 VPWR VGND sg13g2_decap_4
XFILLER_77_671 VPWR VGND sg13g2_fill_1
XFILLER_49_384 VPWR VGND sg13g2_fill_1
XFILLER_64_321 VPWR VGND sg13g2_decap_4
Xmy_game_engine__0973_ VPWR my_game_engine/_0079_ my_game_engine/net424 VGND sg13g2_inv_1
XFILLER_64_398 VPWR VGND sg13g2_fill_1
XFILLER_20_402 VPWR VGND sg13g2_fill_2
Xmy_decoder_paint_inst__311_ my_decoder_paint_inst__296_/B VPWR my_decoder_paint_inst__311_/Y
+ VGND my_decoder_paint_inst__296_/A my_decoder_paint_inst__299_/X sg13g2_o21ai_1
Xmy_decoder__278_ net278 VGND VPWR my_decoder/_037_ my_decoder__278_/Q my_decoder/net395
+ sg13g2_dfrbpq_1
XFILLER_20_479 VPWR VGND sg13g2_decap_8
Xmy_game_engine_fanout153 my_game_engine/_0323_ my_game_engine/net153 VPWR VGND sg13g2_buf_1
Xmy_game_engine_fanout164 my_game_engine/net165 my_game_engine/net164 VPWR VGND sg13g2_buf_1
XFILLER_58_18 VPWR VGND sg13g2_fill_1
Xu_input_top_u_matrix_mem__542_ u_input_top_u_matrix_mem_fanout274/X VGND VPWR u_input_top_u_matrix_mem__542_/D
+ w_grid_from_input\[62\] clknet_leaf_9_clk sg13g2_dfrbpq_1
Xu_input_top_u_matrix_mem__473_ u_input_top_u_matrix_mem__479_/A u_input_top_u_matrix_mem__473_/B
+ u_input_top_u_matrix_mem__605_/D VPWR VGND sg13g2_nor2_1
XFILLER_74_118 VPWR VGND sg13g2_decap_8
XFILLER_74_107 VPWR VGND sg13g2_fill_2
XFILLER_68_671 VPWR VGND sg13g2_fill_1
XFILLER_28_546 VPWR VGND sg13g2_fill_1
XFILLER_67_192 VPWR VGND sg13g2_fill_1
XFILLER_55_332 VPWR VGND sg13g2_decap_8
XFILLER_83_663 VPWR VGND sg13g2_fill_1
XFILLER_55_354 VPWR VGND sg13g2_decap_8
Xmy_decoder_paint_inst__509_ my_decoder_paint_inst__356_/C my_decoder_age_inst__0916_/Q