*SPEF "ieee 1481-1999"
*DESIGN "tt_um_vga_example"
*DATE "18:28:46 Monday February 23, 2026"
*VENDOR "The OpenROAD Project"
*PROGRAM "OpenROAD"
*VERSION "dfc4f595dfb2e1c346492ff1f0274abb28725acf"
*DESIGN_FLOW "NAME_SCOPE LOCAL" "PIN_CAP NONE"
*DIVIDER /
*DELIMITER :
*BUS_DELIMITER []
*T_UNIT 1 NS
*C_UNIT 1 PF
*R_UNIT 1 OHM
*L_UNIT 1 HENRY

*NAME_MAP
*3 clk
*4 ena
*5 rst_n
*6 ui_in[0]
*7 ui_in[1]
*8 ui_in[2]
*9 ui_in[3]
*10 ui_in[4]
*11 ui_in[5]
*12 ui_in[6]
*13 ui_in[7]
*14 uio_in[0]
*15 uio_in[1]
*16 uio_in[2]
*17 uio_in[3]
*18 uio_in[4]
*19 uio_in[5]
*20 uio_in[6]
*21 uio_in[7]
*22 net
*23 net459
*24 net460
*25 net461
*26 net462
*27 net463
*28 net464
*29 net465
*30 net466
*31 net467
*32 net468
*33 net469
*34 net470
*35 net471
*36 net472
*37 net473
*38 uo_out[0]
*39 uo_out[1]
*40 uo_out[2]
*41 uo_out[3]
*42 uo_out[4]
*43 uo_out[5]
*44 uo_out[6]
*45 uo_out[7]
*46 _000_
*47 _001_
*48 _002_
*49 _003_
*50 _004_
*51 _005_
*52 _006_
*53 _007_
*54 _008_
*55 _009_
*56 _010_
*57 _011_
*58 _012_
*59 _013_
*60 _014_
*61 _015_
*62 _016_
*63 _017_
*64 _018_
*65 _019_
*66 _020_
*67 _021_
*68 _022_
*69 _023_
*70 _024_
*71 _025_
*72 _026_
*73 _027_
*74 _028_
*75 _029_
*76 _030_
*77 _031_
*78 _032_
*79 _033_
*80 _034_
*81 _035_
*82 _036_
*83 _037_
*84 _038_
*85 _039_
*86 _040_
*87 _041_
*88 _042_
*89 _043_
*90 _044_
*91 _045_
*92 _046_
*93 _047_
*94 _048_
*95 _049_
*96 _050_
*97 _051_
*98 _052_
*99 _053_
*100 _054_
*101 _055_
*102 _056_
*103 _057_
*104 _058_
*105 _059_
*106 _060_
*107 _061_
*108 _062_
*109 _063_
*110 _064_
*111 _065_
*112 _066_
*113 _067_
*114 _068_
*115 _069_
*116 _070_
*117 _071_
*118 _072_
*119 _073_
*120 _074_
*121 _075_
*122 _076_
*123 _077_
*124 _078_
*125 _079_
*126 _080_
*127 _081_
*128 _082_
*129 _083_
*130 _084_
*131 _085_
*132 _086_
*133 _087_
*134 _088_
*135 _089_
*136 _090_
*137 _091_
*138 _092_
*139 _093_
*140 _094_
*141 _095_
*142 _096_
*143 _097_
*144 _098_
*145 _099_
*146 _100_
*147 _101_
*148 _102_
*149 _103_
*150 _104_
*151 _105_
*152 _106_
*153 _107_
*154 _108_
*155 _109_
*156 _110_
*157 _111_
*158 _112_
*159 _113_
*160 _114_
*161 _115_
*162 _116_
*163 _117_
*164 _118_
*165 _119_
*166 _120_
*167 _121_
*168 _122_
*169 _123_
*170 _124_
*171 _125_
*172 _126_
*173 _127_
*174 _128_
*175 _129_
*176 _130_
*177 _131_
*178 _132_
*179 clknet_0_clk
*180 clknet_2_0__leaf_clk
*181 clknet_2_1__leaf_clk
*182 clknet_2_2__leaf_clk
*183 clknet_2_3__leaf_clk
*184 clknet_leaf_0_clk
*185 clknet_leaf_10_clk
*186 clknet_leaf_11_clk
*187 clknet_leaf_12_clk
*188 clknet_leaf_13_clk
*189 clknet_leaf_14_clk
*190 clknet_leaf_15_clk
*191 clknet_leaf_16_clk
*192 clknet_leaf_17_clk
*193 clknet_leaf_18_clk
*194 clknet_leaf_19_clk
*195 clknet_leaf_1_clk
*196 clknet_leaf_20_clk
*197 clknet_leaf_21_clk
*198 clknet_leaf_22_clk
*199 clknet_leaf_23_clk
*200 clknet_leaf_24_clk
*201 clknet_leaf_2_clk
*202 clknet_leaf_3_clk
*203 clknet_leaf_4_clk
*204 clknet_leaf_5_clk
*205 clknet_leaf_6_clk
*206 clknet_leaf_7_clk
*207 clknet_leaf_8_clk
*208 clknet_leaf_9_clk
*209 grid_loaded
*210 my_decoder/_000_
*211 my_decoder/_001_
*212 my_decoder/_002_
*213 my_decoder/_003_
*214 my_decoder/_004_
*215 my_decoder/_005_
*216 my_decoder/_006_
*217 my_decoder/_007_
*218 my_decoder/_008_
*219 my_decoder/_009_
*220 my_decoder/_010_
*221 my_decoder/_011_
*222 my_decoder/_012_
*223 my_decoder/_013_
*224 my_decoder/_014_
*225 my_decoder/_015_
*226 my_decoder/_016_
*227 my_decoder/_017_
*228 my_decoder/_018_
*229 my_decoder/_019_
*230 my_decoder/_020_
*231 my_decoder/_021_
*232 my_decoder/_022_
*233 my_decoder/_023_
*234 my_decoder/_024_
*235 my_decoder/_025_
*236 my_decoder/_026_
*237 my_decoder/_027_
*238 my_decoder/_028_
*239 my_decoder/_029_
*240 my_decoder/_030_
*241 my_decoder/_031_
*242 my_decoder/_032_
*243 my_decoder/_033_
*244 my_decoder/_034_
*245 my_decoder/_035_
*246 my_decoder/_036_
*247 my_decoder/_037_
*248 my_decoder/_038_
*249 my_decoder/_039_
*250 my_decoder/_040_
*251 my_decoder/_041_
*252 my_decoder/_042_
*253 my_decoder/_043_
*254 my_decoder/_044_
*255 my_decoder/_045_
*256 my_decoder/_046_
*257 my_decoder/_047_
*258 my_decoder/_048_
*259 my_decoder/_049_
*260 my_decoder/_050_
*261 my_decoder/_051_
*262 my_decoder/_052_
*263 my_decoder/_053_
*264 my_decoder/_054_
*265 my_decoder/_055_
*266 my_decoder/_056_
*267 my_decoder/_057_
*268 my_decoder/_058_
*269 my_decoder/_059_
*270 my_decoder/_060_
*271 my_decoder/_061_
*272 my_decoder/_062_
*273 my_decoder/_063_
*274 my_decoder/_064_
*275 my_decoder/_065_
*276 my_decoder/_066_
*277 my_decoder/_067_
*278 my_decoder/_068_
*279 my_decoder/_069_
*280 my_decoder/_070_
*281 my_decoder/_071_
*282 my_decoder/_072_
*283 my_decoder/_073_
*284 my_decoder/_074_
*285 my_decoder/_075_
*286 my_decoder/_076_
*287 my_decoder/_077_
*288 my_decoder/_078_
*289 my_decoder/_079_
*290 my_decoder/_080_
*291 my_decoder/_081_
*292 my_decoder/_082_
*293 my_decoder/_083_
*294 my_decoder/_084_
*295 my_decoder/_085_
*296 my_decoder/_086_
*297 my_decoder/_087_
*298 my_decoder/_088_
*299 my_decoder/_089_
*300 my_decoder/_090_
*301 my_decoder/_091_
*302 my_decoder/_092_
*303 my_decoder/_093_
*304 my_decoder/_094_
*305 my_decoder/_095_
*306 my_decoder/_096_
*307 my_decoder/_097_
*308 my_decoder/_098_
*309 my_decoder/_099_
*310 my_decoder/_100_
*311 my_decoder/_101_
*312 my_decoder/_102_
*313 my_decoder/_103_
*314 my_decoder/_104_
*315 my_decoder/_105_
*316 my_decoder/_106_
*317 my_decoder/_107_
*318 my_decoder/_108_
*319 my_decoder/_109_
*320 my_decoder/_110_
*321 my_decoder/_111_
*322 my_decoder/_112_
*323 my_decoder/_113_
*324 my_decoder/_114_
*325 my_decoder/_115_
*326 my_decoder/_116_
*327 my_decoder/_117_
*328 my_decoder/_118_
*329 my_decoder/_119_
*330 my_decoder/_120_
*331 my_decoder/_121_
*332 my_decoder/_122_
*333 my_decoder/_123_
*334 my_decoder/_124_
*335 my_decoder/_125_
*336 my_decoder/_126_
*337 my_decoder/_127_
*338 my_decoder/_128_
*339 my_decoder/_129_
*340 my_decoder/_130_
*341 my_decoder/age_inst/_0000_
*342 my_decoder/age_inst/_0001_
*343 my_decoder/age_inst/_0002_
*344 my_decoder/age_inst/_0003_
*345 my_decoder/age_inst/_0004_
*346 my_decoder/age_inst/_0005_
*347 my_decoder/age_inst/_0006_
*348 my_decoder/age_inst/_0007_
*349 my_decoder/age_inst/_0008_
*350 my_decoder/age_inst/_0009_
*351 my_decoder/age_inst/_0010_
*352 my_decoder/age_inst/_0011_
*353 my_decoder/age_inst/_0012_
*354 my_decoder/age_inst/_0013_
*355 my_decoder/age_inst/_0014_
*356 my_decoder/age_inst/_0015_
*357 my_decoder/age_inst/_0016_
*358 my_decoder/age_inst/_0017_
*359 my_decoder/age_inst/_0018_
*360 my_decoder/age_inst/_0019_
*361 my_decoder/age_inst/_0020_
*362 my_decoder/age_inst/_0021_
*363 my_decoder/age_inst/_0022_
*364 my_decoder/age_inst/_0023_
*365 my_decoder/age_inst/_0024_
*366 my_decoder/age_inst/_0025_
*367 my_decoder/age_inst/_0026_
*368 my_decoder/age_inst/_0027_
*369 my_decoder/age_inst/_0028_
*370 my_decoder/age_inst/_0029_
*371 my_decoder/age_inst/_0030_
*372 my_decoder/age_inst/_0031_
*373 my_decoder/age_inst/_0032_
*374 my_decoder/age_inst/_0033_
*375 my_decoder/age_inst/_0034_
*376 my_decoder/age_inst/_0035_
*377 my_decoder/age_inst/_0036_
*378 my_decoder/age_inst/_0037_
*379 my_decoder/age_inst/_0038_
*380 my_decoder/age_inst/_0039_
*381 my_decoder/age_inst/_0040_
*382 my_decoder/age_inst/_0041_
*383 my_decoder/age_inst/_0042_
*384 my_decoder/age_inst/_0043_
*385 my_decoder/age_inst/_0044_
*386 my_decoder/age_inst/_0045_
*387 my_decoder/age_inst/_0046_
*388 my_decoder/age_inst/_0047_
*389 my_decoder/age_inst/_0048_
*390 my_decoder/age_inst/_0049_
*391 my_decoder/age_inst/_0050_
*392 my_decoder/age_inst/_0051_
*393 my_decoder/age_inst/_0052_
*394 my_decoder/age_inst/_0053_
*395 my_decoder/age_inst/_0054_
*396 my_decoder/age_inst/_0055_
*397 my_decoder/age_inst/_0056_
*398 my_decoder/age_inst/_0057_
*399 my_decoder/age_inst/_0058_
*400 my_decoder/age_inst/_0059_
*401 my_decoder/age_inst/_0060_
*402 my_decoder/age_inst/_0061_
*403 my_decoder/age_inst/_0062_
*404 my_decoder/age_inst/_0063_
*405 my_decoder/age_inst/_0064_
*406 my_decoder/age_inst/_0065_
*407 my_decoder/age_inst/_0066_
*408 my_decoder/age_inst/_0067_
*409 my_decoder/age_inst/_0068_
*410 my_decoder/age_inst/_0069_
*411 my_decoder/age_inst/_0070_
*412 my_decoder/age_inst/_0071_
*413 my_decoder/age_inst/_0072_
*414 my_decoder/age_inst/_0073_
*415 my_decoder/age_inst/_0074_
*416 my_decoder/age_inst/_0075_
*417 my_decoder/age_inst/_0076_
*418 my_decoder/age_inst/_0077_
*419 my_decoder/age_inst/_0078_
*420 my_decoder/age_inst/_0079_
*421 my_decoder/age_inst/_0080_
*422 my_decoder/age_inst/_0081_
*423 my_decoder/age_inst/_0082_
*424 my_decoder/age_inst/_0083_
*425 my_decoder/age_inst/_0084_
*426 my_decoder/age_inst/_0085_
*427 my_decoder/age_inst/_0086_
*428 my_decoder/age_inst/_0087_
*429 my_decoder/age_inst/_0088_
*430 my_decoder/age_inst/_0089_
*431 my_decoder/age_inst/_0090_
*432 my_decoder/age_inst/_0091_
*433 my_decoder/age_inst/_0092_
*434 my_decoder/age_inst/_0093_
*435 my_decoder/age_inst/_0094_
*436 my_decoder/age_inst/_0095_
*437 my_decoder/age_inst/_0096_
*438 my_decoder/age_inst/_0097_
*439 my_decoder/age_inst/_0098_
*440 my_decoder/age_inst/_0099_
*441 my_decoder/age_inst/_0100_
*442 my_decoder/age_inst/_0101_
*443 my_decoder/age_inst/_0102_
*444 my_decoder/age_inst/_0103_
*445 my_decoder/age_inst/_0104_
*446 my_decoder/age_inst/_0105_
*447 my_decoder/age_inst/_0106_
*448 my_decoder/age_inst/_0107_
*449 my_decoder/age_inst/_0108_
*450 my_decoder/age_inst/_0109_
*451 my_decoder/age_inst/_0110_
*452 my_decoder/age_inst/_0111_
*453 my_decoder/age_inst/_0112_
*454 my_decoder/age_inst/_0113_
*455 my_decoder/age_inst/_0114_
*456 my_decoder/age_inst/_0115_
*457 my_decoder/age_inst/_0116_
*458 my_decoder/age_inst/_0117_
*459 my_decoder/age_inst/_0118_
*460 my_decoder/age_inst/_0119_
*461 my_decoder/age_inst/_0120_
*462 my_decoder/age_inst/_0121_
*463 my_decoder/age_inst/_0122_
*464 my_decoder/age_inst/_0123_
*465 my_decoder/age_inst/_0124_
*466 my_decoder/age_inst/_0125_
*467 my_decoder/age_inst/_0126_
*468 my_decoder/age_inst/_0127_
*469 my_decoder/age_inst/_0128_
*470 my_decoder/age_inst/_0129_
*471 my_decoder/age_inst/_0130_
*472 my_decoder/age_inst/_0131_
*473 my_decoder/age_inst/_0132_
*474 my_decoder/age_inst/_0133_
*475 my_decoder/age_inst/_0134_
*476 my_decoder/age_inst/_0135_
*477 my_decoder/age_inst/_0136_
*478 my_decoder/age_inst/_0137_
*479 my_decoder/age_inst/_0138_
*480 my_decoder/age_inst/_0139_
*481 my_decoder/age_inst/_0140_
*482 my_decoder/age_inst/_0141_
*483 my_decoder/age_inst/_0142_
*484 my_decoder/age_inst/_0143_
*485 my_decoder/age_inst/_0144_
*486 my_decoder/age_inst/_0145_
*487 my_decoder/age_inst/_0146_
*488 my_decoder/age_inst/_0147_
*489 my_decoder/age_inst/_0148_
*490 my_decoder/age_inst/_0149_
*491 my_decoder/age_inst/_0150_
*492 my_decoder/age_inst/_0151_
*493 my_decoder/age_inst/_0152_
*494 my_decoder/age_inst/_0153_
*495 my_decoder/age_inst/_0154_
*496 my_decoder/age_inst/_0155_
*497 my_decoder/age_inst/_0156_
*498 my_decoder/age_inst/_0157_
*499 my_decoder/age_inst/_0158_
*500 my_decoder/age_inst/_0159_
*501 my_decoder/age_inst/_0160_
*502 my_decoder/age_inst/_0161_
*503 my_decoder/age_inst/_0162_
*504 my_decoder/age_inst/_0163_
*505 my_decoder/age_inst/_0164_
*506 my_decoder/age_inst/_0165_
*507 my_decoder/age_inst/_0166_
*508 my_decoder/age_inst/_0167_
*509 my_decoder/age_inst/_0168_
*510 my_decoder/age_inst/_0169_
*511 my_decoder/age_inst/_0170_
*512 my_decoder/age_inst/_0171_
*513 my_decoder/age_inst/_0172_
*514 my_decoder/age_inst/_0173_
*515 my_decoder/age_inst/_0174_
*516 my_decoder/age_inst/_0175_
*517 my_decoder/age_inst/_0176_
*518 my_decoder/age_inst/_0177_
*519 my_decoder/age_inst/_0178_
*520 my_decoder/age_inst/_0179_
*521 my_decoder/age_inst/_0180_
*522 my_decoder/age_inst/_0181_
*523 my_decoder/age_inst/_0182_
*524 my_decoder/age_inst/_0183_
*525 my_decoder/age_inst/_0184_
*526 my_decoder/age_inst/_0185_
*527 my_decoder/age_inst/_0186_
*528 my_decoder/age_inst/_0187_
*529 my_decoder/age_inst/_0188_
*530 my_decoder/age_inst/_0189_
*531 my_decoder/age_inst/_0190_
*532 my_decoder/age_inst/_0191_
*533 my_decoder/age_inst/_0192_
*534 my_decoder/age_inst/_0193_
*535 my_decoder/age_inst/_0194_
*536 my_decoder/age_inst/_0195_
*537 my_decoder/age_inst/_0196_
*538 my_decoder/age_inst/_0197_
*539 my_decoder/age_inst/_0198_
*540 my_decoder/age_inst/_0199_
*541 my_decoder/age_inst/_0200_
*542 my_decoder/age_inst/_0201_
*543 my_decoder/age_inst/_0202_
*544 my_decoder/age_inst/_0203_
*545 my_decoder/age_inst/_0204_
*546 my_decoder/age_inst/_0205_
*547 my_decoder/age_inst/_0206_
*548 my_decoder/age_inst/_0207_
*549 my_decoder/age_inst/_0208_
*550 my_decoder/age_inst/_0209_
*551 my_decoder/age_inst/_0210_
*552 my_decoder/age_inst/_0211_
*553 my_decoder/age_inst/_0212_
*554 my_decoder/age_inst/_0213_
*555 my_decoder/age_inst/_0214_
*556 my_decoder/age_inst/_0215_
*557 my_decoder/age_inst/_0216_
*558 my_decoder/age_inst/_0217_
*559 my_decoder/age_inst/_0218_
*560 my_decoder/age_inst/_0219_
*561 my_decoder/age_inst/_0220_
*562 my_decoder/age_inst/_0221_
*563 my_decoder/age_inst/_0222_
*564 my_decoder/age_inst/_0223_
*565 my_decoder/age_inst/_0224_
*566 my_decoder/age_inst/_0225_
*567 my_decoder/age_inst/_0226_
*568 my_decoder/age_inst/_0227_
*569 my_decoder/age_inst/_0228_
*570 my_decoder/age_inst/_0229_
*571 my_decoder/age_inst/_0230_
*572 my_decoder/age_inst/_0231_
*573 my_decoder/age_inst/_0232_
*574 my_decoder/age_inst/_0233_
*575 my_decoder/age_inst/_0234_
*576 my_decoder/age_inst/_0235_
*577 my_decoder/age_inst/_0236_
*578 my_decoder/age_inst/_0237_
*579 my_decoder/age_inst/_0238_
*580 my_decoder/age_inst/_0239_
*581 my_decoder/age_inst/_0240_
*582 my_decoder/age_inst/_0241_
*583 my_decoder/age_inst/_0242_
*584 my_decoder/age_inst/_0243_
*585 my_decoder/age_inst/_0244_
*586 my_decoder/age_inst/_0245_
*587 my_decoder/age_inst/_0246_
*588 my_decoder/age_inst/_0247_
*589 my_decoder/age_inst/_0248_
*590 my_decoder/age_inst/_0249_
*591 my_decoder/age_inst/_0250_
*592 my_decoder/age_inst/_0251_
*593 my_decoder/age_inst/_0252_
*594 my_decoder/age_inst/_0253_
*595 my_decoder/age_inst/_0254_
*596 my_decoder/age_inst/_0255_
*597 my_decoder/age_inst/_0256_
*598 my_decoder/age_inst/_0257_
*599 my_decoder/age_inst/_0258_
*600 my_decoder/age_inst/_0259_
*601 my_decoder/age_inst/_0260_
*602 my_decoder/age_inst/_0261_
*603 my_decoder/age_inst/_0262_
*604 my_decoder/age_inst/_0263_
*605 my_decoder/age_inst/_0264_
*606 my_decoder/age_inst/_0265_
*607 my_decoder/age_inst/_0266_
*608 my_decoder/age_inst/_0267_
*609 my_decoder/age_inst/_0268_
*610 my_decoder/age_inst/_0269_
*611 my_decoder/age_inst/_0270_
*612 my_decoder/age_inst/_0271_
*613 my_decoder/age_inst/_0272_
*614 my_decoder/age_inst/_0273_
*615 my_decoder/age_inst/_0274_
*616 my_decoder/age_inst/_0275_
*617 my_decoder/age_inst/_0276_
*618 my_decoder/age_inst/_0277_
*619 my_decoder/age_inst/_0278_
*620 my_decoder/age_inst/_0279_
*621 my_decoder/age_inst/_0280_
*622 my_decoder/age_inst/_0281_
*623 my_decoder/age_inst/_0282_
*624 my_decoder/age_inst/_0283_
*625 my_decoder/age_inst/_0284_
*626 my_decoder/age_inst/_0285_
*627 my_decoder/age_inst/_0286_
*628 my_decoder/age_inst/_0287_
*629 my_decoder/age_inst/_0288_
*630 my_decoder/age_inst/_0289_
*631 my_decoder/age_inst/_0290_
*632 my_decoder/age_inst/_0291_
*633 my_decoder/age_inst/_0292_
*634 my_decoder/age_inst/_0293_
*635 my_decoder/age_inst/_0294_
*636 my_decoder/age_inst/_0295_
*637 my_decoder/age_inst/_0296_
*638 my_decoder/age_inst/_0297_
*639 my_decoder/age_inst/_0298_
*640 my_decoder/age_inst/_0299_
*641 my_decoder/age_inst/_0300_
*642 my_decoder/age_inst/_0301_
*643 my_decoder/age_inst/_0302_
*644 my_decoder/age_inst/_0303_
*645 my_decoder/age_inst/_0304_
*646 my_decoder/age_inst/_0305_
*647 my_decoder/age_inst/_0306_
*648 my_decoder/age_inst/_0307_
*649 my_decoder/age_inst/_0308_
*650 my_decoder/age_inst/_0309_
*651 my_decoder/age_inst/_0310_
*652 my_decoder/age_inst/_0311_
*653 my_decoder/age_inst/_0312_
*654 my_decoder/age_inst/_0313_
*655 my_decoder/age_inst/_0314_
*656 my_decoder/age_inst/_0315_
*657 my_decoder/age_inst/_0316_
*658 my_decoder/age_inst/_0317_
*659 my_decoder/age_inst/_0318_
*660 my_decoder/age_inst/_0319_
*661 my_decoder/age_inst/_0320_
*662 my_decoder/age_inst/_0321_
*663 my_decoder/age_inst/_0322_
*664 my_decoder/age_inst/_0323_
*665 my_decoder/age_inst/_0324_
*666 my_decoder/age_inst/_0325_
*667 my_decoder/age_inst/_0326_
*668 my_decoder/age_inst/_0327_
*669 my_decoder/age_inst/_0328_
*670 my_decoder/age_inst/_0329_
*671 my_decoder/age_inst/_0330_
*672 my_decoder/age_inst/_0331_
*673 my_decoder/age_inst/_0332_
*674 my_decoder/age_inst/_0333_
*675 my_decoder/age_inst/_0334_
*676 my_decoder/age_inst/_0335_
*677 my_decoder/age_inst/_0336_
*678 my_decoder/age_inst/_0337_
*679 my_decoder/age_inst/_0338_
*680 my_decoder/age_inst/_0339_
*681 my_decoder/age_inst/_0340_
*682 my_decoder/age_inst/_0341_
*683 my_decoder/age_inst/_0342_
*684 my_decoder/age_inst/_0343_
*685 my_decoder/age_inst/_0344_
*686 my_decoder/age_inst/_0345_
*687 my_decoder/age_inst/_0346_
*688 my_decoder/age_inst/_0347_
*689 my_decoder/age_inst/_0348_
*690 my_decoder/age_inst/_0349_
*691 my_decoder/age_inst/_0350_
*692 my_decoder/age_inst/_0351_
*693 my_decoder/age_inst/_0352_
*694 my_decoder/age_inst/_0353_
*695 my_decoder/age_inst/_0354_
*696 my_decoder/age_inst/_0355_
*697 my_decoder/age_inst/_0356_
*698 my_decoder/age_inst/_0357_
*699 my_decoder/age_inst/_0358_
*700 my_decoder/age_inst/_0359_
*701 my_decoder/age_inst/_0360_
*702 my_decoder/age_inst/_0361_
*703 my_decoder/age_inst/_0362_
*704 my_decoder/age_inst/_0363_
*705 my_decoder/age_inst/_0364_
*706 my_decoder/age_inst/_0365_
*707 my_decoder/age_inst/_0366_
*708 my_decoder/age_inst/_0367_
*709 my_decoder/age_inst/_0368_
*710 my_decoder/age_inst/_0369_
*711 my_decoder/age_inst/_0370_
*712 my_decoder/age_inst/_0371_
*713 my_decoder/age_inst/_0372_
*714 my_decoder/age_inst/_0373_
*715 my_decoder/age_inst/_0374_
*716 my_decoder/age_inst/_0375_
*717 my_decoder/age_inst/_0376_
*718 my_decoder/age_inst/_0377_
*719 my_decoder/age_inst/_0378_
*720 my_decoder/age_inst/_0379_
*721 my_decoder/age_inst/_0380_
*722 my_decoder/age_inst/_0381_
*723 my_decoder/age_inst/_0382_
*724 my_decoder/age_inst/_0383_
*725 my_decoder/age_inst/_0384_
*726 my_decoder/age_inst/_0385_
*727 my_decoder/age_inst/_0386_
*728 my_decoder/age_inst/_0387_
*729 my_decoder/age_inst/_0388_
*730 my_decoder/age_inst/_0389_
*731 my_decoder/age_inst/_0390_
*732 my_decoder/age_inst/_0391_
*733 my_decoder/age_inst/_0392_
*734 my_decoder/age_inst/_0393_
*735 my_decoder/age_inst/_0394_
*736 my_decoder/age_inst/_0395_
*737 my_decoder/age_inst/_0396_
*738 my_decoder/age_inst/_0397_
*739 my_decoder/age_inst/_0398_
*740 my_decoder/age_inst/_0399_
*741 my_decoder/age_inst/_0400_
*742 my_decoder/age_inst/_0401_
*743 my_decoder/age_inst/_0402_
*744 my_decoder/age_inst/_0403_
*745 my_decoder/age_inst/_0404_
*746 my_decoder/age_inst/_0405_
*747 my_decoder/age_inst/_0406_
*748 my_decoder/age_inst/_0407_
*749 my_decoder/age_inst/_0408_
*750 my_decoder/age_inst/_0409_
*751 my_decoder/age_inst/_0410_
*752 my_decoder/age_inst/_0411_
*753 my_decoder/age_inst/_0412_
*754 my_decoder/age_inst/_0413_
*755 my_decoder/age_inst/_0414_
*756 my_decoder/age_inst/_0415_
*757 my_decoder/age_inst/_0416_
*758 my_decoder/age_inst/_0417_
*759 my_decoder/age_inst/_0418_
*760 my_decoder/age_inst/_0419_
*761 my_decoder/age_inst/_0420_
*762 my_decoder/age_inst/_0421_
*763 my_decoder/age_inst/_0422_
*764 my_decoder/age_inst/_0423_
*765 my_decoder/age_inst/_0424_
*766 my_decoder/age_inst/_0425_
*767 my_decoder/age_inst/_0426_
*768 my_decoder/age_inst/_0427_
*769 my_decoder/age_inst/_0428_
*770 my_decoder/age_inst/_0429_
*771 my_decoder/age_inst/_0430_
*772 my_decoder/age_inst/_0431_
*773 my_decoder/age_inst/_0432_
*774 my_decoder/age_inst/_0433_
*775 my_decoder/age_inst/_0434_
*776 my_decoder/age_inst/_0435_
*777 my_decoder/age_inst/_0436_
*778 my_decoder/age_inst/_0437_
*779 my_decoder/age_inst/_0438_
*780 my_decoder/age_inst/_0439_
*781 my_decoder/age_inst/_0440_
*782 my_decoder/age_inst/_0441_
*783 my_decoder/age_inst/_0442_
*784 my_decoder/age_inst/_0443_
*785 my_decoder/age_inst/_0444_
*786 my_decoder/age_inst/_0445_
*787 my_decoder/age_inst/_0446_
*788 my_decoder/age_inst/_0447_
*789 my_decoder/age_inst/net180
*790 my_decoder/age_inst/net181
*791 my_decoder/age_inst/net182
*792 my_decoder/age_inst/net183
*793 my_decoder/age_inst/net184
*794 my_decoder/age_inst/net185
*795 my_decoder/age_inst/net186
*796 my_decoder/age_inst/net187
*797 my_decoder/age_inst/net188
*798 my_decoder/age_inst/net189
*799 my_decoder/age_inst/net190
*800 my_decoder/age_inst/net191
*801 my_decoder/age_inst/net192
*802 my_decoder/age_inst/net193
*803 my_decoder/age_inst/net194
*804 my_decoder/age_inst/net195
*805 my_decoder/age_inst/net196
*806 my_decoder/age_inst/net197
*807 my_decoder/age_inst/net198
*808 my_decoder/age_inst/net199
*809 my_decoder/age_inst/net200
*810 my_decoder/age_inst/net201
*811 my_decoder/age_inst/net202
*812 my_decoder/age_inst/net203
*813 my_decoder/age_inst/net204
*814 my_decoder/age_inst/net205
*815 my_decoder/age_inst/net206
*816 my_decoder/age_inst/net207
*817 my_decoder/age_inst/net208
*818 my_decoder/age_inst/net210
*819 my_decoder/age_inst/net211
*820 my_decoder/age_inst/net213
*821 my_decoder/age_inst/net214
*822 my_decoder/age_inst/net215
*823 my_decoder/age_inst/net216
*824 my_decoder/age_inst/net217
*825 my_decoder/age_inst/net219
*826 my_decoder/age_inst/net220
*827 my_decoder/age_inst/net221
*828 my_decoder/age_inst/net222
*829 my_decoder/age_inst/net223
*830 my_decoder/age_inst/net224
*831 my_decoder/age_inst/net225
*832 my_decoder/age_inst/net226
*833 my_decoder/age_inst/net227
*834 my_decoder/age_inst/net228
*835 my_decoder/age_inst/net229
*836 my_decoder/age_inst/net230
*837 my_decoder/age_inst/net231
*838 my_decoder/age_inst/net232
*839 my_decoder/age_inst/net233
*840 my_decoder/age_inst/net291
*841 my_decoder/age_inst/net293
*842 my_decoder/age_inst/net294
*843 my_decoder/age_inst/net306
*844 my_decoder/age_inst/net308
*845 my_decoder/age_inst/net317
*846 my_decoder/age_inst/net377
*847 my_decoder/age_inst/net381
*848 my_decoder/age_inst/net382
*849 my_decoder/age_inst/net388
*850 my_decoder/age_inst/net390
*851 my_decoder/age_inst/net403
*852 my_decoder/clk_25
*853 my_decoder/clk_cnt\[0\]
*854 my_decoder/display_buffer\[0\]
*855 my_decoder/display_buffer\[10\]
*856 my_decoder/display_buffer\[11\]
*857 my_decoder/display_buffer\[12\]
*858 my_decoder/display_buffer\[13\]
*859 my_decoder/display_buffer\[14\]
*860 my_decoder/display_buffer\[15\]
*861 my_decoder/display_buffer\[16\]
*862 my_decoder/display_buffer\[17\]
*863 my_decoder/display_buffer\[18\]
*864 my_decoder/display_buffer\[19\]
*865 my_decoder/display_buffer\[1\]
*866 my_decoder/display_buffer\[20\]
*867 my_decoder/display_buffer\[21\]
*868 my_decoder/display_buffer\[22\]
*869 my_decoder/display_buffer\[23\]
*870 my_decoder/display_buffer\[24\]
*871 my_decoder/display_buffer\[25\]
*872 my_decoder/display_buffer\[26\]
*873 my_decoder/display_buffer\[27\]
*874 my_decoder/display_buffer\[28\]
*875 my_decoder/display_buffer\[29\]
*876 my_decoder/display_buffer\[2\]
*877 my_decoder/display_buffer\[30\]
*878 my_decoder/display_buffer\[31\]
*879 my_decoder/display_buffer\[32\]
*880 my_decoder/display_buffer\[33\]
*881 my_decoder/display_buffer\[34\]
*882 my_decoder/display_buffer\[35\]
*883 my_decoder/display_buffer\[36\]
*884 my_decoder/display_buffer\[37\]
*885 my_decoder/display_buffer\[38\]
*886 my_decoder/display_buffer\[39\]
*887 my_decoder/display_buffer\[3\]
*888 my_decoder/display_buffer\[40\]
*889 my_decoder/display_buffer\[41\]
*890 my_decoder/display_buffer\[42\]
*891 my_decoder/display_buffer\[43\]
*892 my_decoder/display_buffer\[44\]
*893 my_decoder/display_buffer\[45\]
*894 my_decoder/display_buffer\[46\]
*895 my_decoder/display_buffer\[47\]
*896 my_decoder/display_buffer\[48\]
*897 my_decoder/display_buffer\[49\]
*898 my_decoder/display_buffer\[4\]
*899 my_decoder/display_buffer\[50\]
*900 my_decoder/display_buffer\[51\]
*901 my_decoder/display_buffer\[52\]
*902 my_decoder/display_buffer\[53\]
*903 my_decoder/display_buffer\[54\]
*904 my_decoder/display_buffer\[55\]
*905 my_decoder/display_buffer\[56\]
*906 my_decoder/display_buffer\[57\]
*907 my_decoder/display_buffer\[58\]
*908 my_decoder/display_buffer\[59\]
*909 my_decoder/display_buffer\[5\]
*910 my_decoder/display_buffer\[60\]
*911 my_decoder/display_buffer\[61\]
*912 my_decoder/display_buffer\[62\]
*913 my_decoder/display_buffer\[63\]
*914 my_decoder/display_buffer\[6\]
*915 my_decoder/display_buffer\[7\]
*916 my_decoder/display_buffer\[8\]
*917 my_decoder/display_buffer\[9\]
*918 my_decoder/frame_counter\[0\]
*919 my_decoder/frame_counter\[1\]
*920 my_decoder/frame_counter\[2\]
*921 my_decoder/frame_counter\[3\]
*922 my_decoder/frame_counter\[4\]
*923 my_decoder/frame_counter\[5\]
*924 my_decoder/frame_tick
*925 my_decoder/net105
*926 my_decoder/net106
*927 my_decoder/net107
*928 my_decoder/net108
*929 my_decoder/net109
*930 my_decoder/net110
*931 my_decoder/net111
*932 my_decoder/net112
*933 my_decoder/net113
*934 my_decoder/net114
*935 my_decoder/net115
*936 my_decoder/net116
*937 my_decoder/net117
*938 my_decoder/net118
*939 my_decoder/net169
*940 my_decoder/net171
*941 my_decoder/net172
*942 my_decoder/net173
*943 my_decoder/net174
*944 my_decoder/net175
*945 my_decoder/net176
*946 my_decoder/net177
*947 my_decoder/net178
*948 my_decoder/net179
*949 my_decoder/net209
*950 my_decoder/net212
*951 my_decoder/net218
*952 my_decoder/net234
*953 my_decoder/net284
*954 my_decoder/net290
*955 my_decoder/net292
*956 my_decoder/net295
*957 my_decoder/net296
*958 my_decoder/net297
*959 my_decoder/net298
*960 my_decoder/net299
*961 my_decoder/net300
*962 my_decoder/net301
*963 my_decoder/net307
*964 my_decoder/net309
*965 my_decoder/net310
*966 my_decoder/net312
*967 my_decoder/net313
*968 my_decoder/net314
*969 my_decoder/net316
*970 my_decoder/net318
*971 my_decoder/net319
*972 my_decoder/net321
*973 my_decoder/net375
*974 my_decoder/net376
*975 my_decoder/net378
*976 my_decoder/net379
*977 my_decoder/net380
*978 my_decoder/net383
*979 my_decoder/net384
*980 my_decoder/net385
*981 my_decoder/net386
*982 my_decoder/net387
*983 my_decoder/net389
*984 my_decoder/net391
*985 my_decoder/net392
*986 my_decoder/net393
*987 my_decoder/net394
*988 my_decoder/net395
*989 my_decoder/net396
*990 my_decoder/net397
*991 my_decoder/net398
*992 my_decoder/net399
*993 my_decoder/net400
*994 my_decoder/net401
*995 my_decoder/net402
*996 my_decoder/net404
*997 my_decoder/net405
*998 my_decoder/net406
*999 my_decoder/net407
*1000 my_decoder/net408
*1001 my_decoder/net409
*1002 my_decoder/net410
*1003 my_decoder/net411
*1004 my_decoder/net412
*1005 my_decoder/net476
*1006 my_decoder/paint_inst/_000_
*1007 my_decoder/paint_inst/_001_
*1008 my_decoder/paint_inst/_002_
*1009 my_decoder/paint_inst/_003_
*1010 my_decoder/paint_inst/_004_
*1011 my_decoder/paint_inst/_005_
*1012 my_decoder/paint_inst/_006_
*1013 my_decoder/paint_inst/_007_
*1014 my_decoder/paint_inst/_008_
*1015 my_decoder/paint_inst/_009_
*1016 my_decoder/paint_inst/_010_
*1017 my_decoder/paint_inst/_011_
*1018 my_decoder/paint_inst/_012_
*1019 my_decoder/paint_inst/_013_
*1020 my_decoder/paint_inst/_014_
*1021 my_decoder/paint_inst/_015_
*1022 my_decoder/paint_inst/_016_
*1023 my_decoder/paint_inst/_017_
*1024 my_decoder/paint_inst/_018_
*1025 my_decoder/paint_inst/_019_
*1026 my_decoder/paint_inst/_020_
*1027 my_decoder/paint_inst/_021_
*1028 my_decoder/paint_inst/_022_
*1029 my_decoder/paint_inst/_023_
*1030 my_decoder/paint_inst/_024_
*1031 my_decoder/paint_inst/_025_
*1032 my_decoder/paint_inst/_026_
*1033 my_decoder/paint_inst/_027_
*1034 my_decoder/paint_inst/_028_
*1035 my_decoder/paint_inst/_029_
*1036 my_decoder/paint_inst/_030_
*1037 my_decoder/paint_inst/_031_
*1038 my_decoder/paint_inst/_032_
*1039 my_decoder/paint_inst/_033_
*1040 my_decoder/paint_inst/_034_
*1041 my_decoder/paint_inst/_035_
*1042 my_decoder/paint_inst/_036_
*1043 my_decoder/paint_inst/_037_
*1044 my_decoder/paint_inst/_038_
*1045 my_decoder/paint_inst/_039_
*1046 my_decoder/paint_inst/_040_
*1047 my_decoder/paint_inst/_041_
*1048 my_decoder/paint_inst/_042_
*1049 my_decoder/paint_inst/_043_
*1050 my_decoder/paint_inst/_044_
*1051 my_decoder/paint_inst/_045_
*1052 my_decoder/paint_inst/_046_
*1053 my_decoder/paint_inst/_047_
*1054 my_decoder/paint_inst/_048_
*1055 my_decoder/paint_inst/_049_
*1056 my_decoder/paint_inst/_050_
*1057 my_decoder/paint_inst/_051_
*1058 my_decoder/paint_inst/_052_
*1059 my_decoder/paint_inst/_053_
*1060 my_decoder/paint_inst/_054_
*1061 my_decoder/paint_inst/_055_
*1062 my_decoder/paint_inst/_056_
*1063 my_decoder/paint_inst/_057_
*1064 my_decoder/paint_inst/_058_
*1065 my_decoder/paint_inst/_059_
*1066 my_decoder/paint_inst/_060_
*1067 my_decoder/paint_inst/_061_
*1068 my_decoder/paint_inst/_062_
*1069 my_decoder/paint_inst/_063_
*1070 my_decoder/paint_inst/_064_
*1071 my_decoder/paint_inst/_065_
*1072 my_decoder/paint_inst/_066_
*1073 my_decoder/paint_inst/_067_
*1074 my_decoder/paint_inst/_068_
*1075 my_decoder/paint_inst/_069_
*1076 my_decoder/paint_inst/_070_
*1077 my_decoder/paint_inst/_071_
*1078 my_decoder/paint_inst/_072_
*1079 my_decoder/paint_inst/_073_
*1080 my_decoder/paint_inst/_074_
*1081 my_decoder/paint_inst/_075_
*1082 my_decoder/paint_inst/_076_
*1083 my_decoder/paint_inst/_077_
*1084 my_decoder/paint_inst/_078_
*1085 my_decoder/paint_inst/_079_
*1086 my_decoder/paint_inst/_080_
*1087 my_decoder/paint_inst/_081_
*1088 my_decoder/paint_inst/_082_
*1089 my_decoder/paint_inst/_083_
*1090 my_decoder/paint_inst/_084_
*1091 my_decoder/paint_inst/_085_
*1092 my_decoder/paint_inst/_086_
*1093 my_decoder/paint_inst/_087_
*1094 my_decoder/paint_inst/_088_
*1095 my_decoder/paint_inst/_089_
*1096 my_decoder/paint_inst/_090_
*1097 my_decoder/paint_inst/_091_
*1098 my_decoder/paint_inst/_092_
*1099 my_decoder/paint_inst/_093_
*1100 my_decoder/paint_inst/_094_